LTspice 24.1.9 for Windows
Circuit: C:\Users\Gagan\Desktop\summer term\Drone-charging-WPT-Sims\ClassE.net
Start Time: Thu May 28 14:40:09 2026
solver = Normal
Maximum thread count: 14
tnom = 27
temp = 27
method = trap
.OP point found by inspection.
Total elapsed time: 5.246 seconds.

Files loaded:
C:\Users\Gagan\Desktop\summer term\Drone-charging-WPT-Sims\ClassE.net
C:\Users\Gagan\AppData\Local\LTspice\lib\cmp\standard.dio
C:\Users\Gagan\AppData\Local\LTspice\lib\cmp\standard.mos

