LTspice 24.1.9 for Windows
Circuit: C:\Users\Gagan\Desktop\summer term\Drone-charging-WPT-Sims\rectifier.net
Start Time: Thu May 28 13:22:20 2026
solver = Normal
Maximum thread count: 14
tnom = 27
temp = 27
method = trap
.OP point found by inspection.
Total elapsed time: 1.360 seconds.

Files loaded:
C:\Users\Gagan\Desktop\summer term\Drone-charging-WPT-Sims\rectifier.net
C:\Users\Gagan\AppData\Local\LTspice\lib\cmp\standard.dio

