LTspice 24.1.9 for Windows
Circuit: C:\Users\Gagan\Desktop\summer term\Drone-charging-WPT-Sims\rectifier.net
Start Time: Sat May 30 20:53:46 2026
solver = Normal
Maximum thread count: 14
tnom = 27
temp = 27
method = trap
.OP point found by inspection.
Total elapsed time: 4.470 seconds.

Files loaded:
C:\Users\Gagan\Desktop\summer term\Drone-charging-WPT-Sims\rectifier.net
C:\Users\Gagan\AppData\Local\LTspice\lib\cmp\standard.dio

